<?xml version="1.0" encoding="UTF-8"?>

<!-- generated on 01/30/18 15:12:27 by SUMO netconvert Version 0.30.0
<?xml version="1.0" encoding="UTF-8"?>

<configuration xmlns:xsi="http://www.w3.org/2001/XMLSchema-instance" xsi:noNamespaceSchemaLocation="http://sumo.dlr.de/xsd/netconvertConfiguration.xsd">

    <input>
        <osm-files value="map.osm"/>
    </input>

    <projection>
        <proj.utm value="true"/>
    </projection>

</configuration>
-->

<net version="0.27" xmlns:xsi="http://www.w3.org/2001/XMLSchema-instance" xsi:noNamespaceSchemaLocation="http://sumo.dlr.de/xsd/net_file.xsd">

    <location netOffset="-365468.57,-3769708.65" convBoundary="0.00,0.00,1750.72,1098.73" origBoundary="-118.457913,34.058499,-118.438927,34.076709" projParameter="+proj=utm +zone=11 +ellps=WGS84 +datum=WGS84 +units=m +no_defs"/>

    <type id="highway.bridleway" priority="1" numLanes="1" speed="2.78" allow="pedestrian" oneway="1" width="2.00"/>
    <type id="highway.bus_guideway" priority="1" numLanes="1" speed="8.33" allow="bus" oneway="1"/>
    <type id="highway.cycleway" priority="1" numLanes="1" speed="5.56" allow="bicycle" oneway="0" width="1.00"/>
    <type id="highway.footway" priority="1" numLanes="1" speed="2.78" allow="pedestrian" oneway="1" width="2.00"/>
    <type id="highway.ford" priority="1" numLanes="1" speed="2.78" allow="army" oneway="0"/>
    <type id="highway.living_street" priority="3" numLanes="1" speed="2.78" disallow="tram rail_urban rail rail_electric ship" oneway="0"/>
    <type id="highway.motorway" priority="13" numLanes="2" speed="44.44" allow="private emergency authority army vip passenger hov taxi bus coach delivery truck trailer motorcycle evehicle custom1 custom2" oneway="1"/>
    <type id="highway.motorway_link" priority="12" numLanes="1" speed="22.22" allow="private emergency authority army vip passenger hov taxi bus coach delivery truck trailer motorcycle evehicle custom1 custom2" oneway="1"/>
    <type id="highway.path" priority="1" numLanes="1" speed="2.78" allow="bicycle pedestrian" oneway="1" width="2.00"/>
    <type id="highway.pedestrian" priority="1" numLanes="1" speed="2.78" allow="pedestrian" oneway="1" width="2.00"/>
    <type id="highway.primary" priority="9" numLanes="2" speed="27.78" disallow="tram rail_urban rail rail_electric ship" oneway="0"/>
    <type id="highway.primary_link" priority="8" numLanes="1" speed="22.22" disallow="tram rail_urban rail rail_electric ship" oneway="0"/>
    <type id="highway.raceway" priority="14" numLanes="2" speed="83.33" allow="vip" oneway="0"/>
    <type id="highway.residential" priority="4" numLanes="1" speed="13.89" disallow="tram rail_urban rail rail_electric ship" oneway="0"/>
    <type id="highway.secondary" priority="7" numLanes="2" speed="27.78" disallow="tram rail_urban rail rail_electric ship" oneway="0"/>
    <type id="highway.secondary_link" priority="6" numLanes="1" speed="22.22" disallow="tram rail_urban rail rail_electric ship" oneway="0"/>
    <type id="highway.service" priority="2" numLanes="1" speed="5.56" allow="delivery bicycle pedestrian" oneway="0"/>
    <type id="highway.services" priority="1" numLanes="1" speed="8.33" disallow="tram rail_urban rail rail_electric ship" oneway="0"/>
    <type id="highway.stairs" priority="1" numLanes="1" speed="1.39" allow="pedestrian" oneway="1" width="2.00"/>
    <type id="highway.step" priority="1" numLanes="1" speed="1.39" allow="pedestrian" oneway="1" width="2.00"/>
    <type id="highway.steps" priority="1" numLanes="1" speed="1.39" allow="pedestrian" oneway="1" width="2.00"/>
    <type id="highway.tertiary" priority="6" numLanes="1" speed="22.22" disallow="tram rail_urban rail rail_electric ship" oneway="0"/>
    <type id="highway.tertiary_link" priority="5" numLanes="1" speed="22.22" disallow="tram rail_urban rail rail_electric ship" oneway="0"/>
    <type id="highway.track" priority="1" numLanes="1" speed="5.56" disallow="tram rail_urban rail rail_electric ship" oneway="0"/>
    <type id="highway.trunk" priority="11" numLanes="2" speed="27.78" disallow="tram rail_urban rail rail_electric bicycle pedestrian ship" oneway="0"/>
    <type id="highway.trunk_link" priority="10" numLanes="1" speed="22.22" disallow="tram rail_urban rail rail_electric bicycle pedestrian ship" oneway="0"/>
    <type id="highway.unclassified" priority="5" numLanes="1" speed="13.89" disallow="tram rail_urban rail rail_electric ship" oneway="0"/>
    <type id="highway.unsurfaced" priority="1" numLanes="1" speed="8.33" disallow="tram rail_urban rail rail_electric ship" oneway="0"/>
    <type id="railway.light_rail" priority="15" numLanes="1" speed="27.78" allow="rail_urban" oneway="1"/>
    <type id="railway.preserved" priority="15" numLanes="1" speed="27.78" allow="rail" oneway="1"/>
    <type id="railway.rail" priority="15" numLanes="1" speed="83.33" allow="rail rail_electric" oneway="1"/>
    <type id="railway.subway" priority="15" numLanes="1" speed="27.78" allow="rail_urban" oneway="1"/>
    <type id="railway.tram" priority="15" numLanes="1" speed="13.89" allow="tram" oneway="1"/>

    <edge id=":122681077_0" function="internal">
        <lane id=":122681077_0_0" index="0" disallow="tram rail_urban rail rail_electric ship" speed="13.89" length="4.82" shape="1453.83,95.41 1453.95,93.92 1454.47,93.16 1455.40,93.12 1456.72,93.80"/>
    </edge>
    <edge id=":122681080_0" function="internal">
        <lane id=":122681080_0_0" index="0" disallow="tram rail_urban rail rail_electric ship" speed="13.89" length="8.90" shape="1314.87,33.77 1316.51,32.60 1318.19,32.66 1319.89,33.96 1321.64,36.48"/>
    </edge>
    <edge id=":122681080_1" function="internal">
        <lane id=":122681080_1_0" index="0" disallow="tram rail_urban rail rail_electric ship" speed="13.89" length="4.82" shape="1314.87,33.77 1316.32,33.41 1317.20,33.66 1317.54,34.52 1317.31,35.99"/>
    </edge>
    <edge id=":122681083_0" function="internal">
        <lane id=":122681083_0_0" index="0" disallow="tram rail_urban rail rail_electric ship" speed="27.78" length="4.82" shape="1209.15,-0.98 1210.54,-1.49 1211.45,-1.33 1211.87,-0.51 1211.81,0.98"/>
    </edge>
    <edge id=":122762231_0" function="internal">
        <lane id=":122762231_0_0" index="0" disallow="tram rail_urban rail rail_electric ship" speed="13.89" length="4.82" shape="1752.34,1098.39 1751.79,1099.77 1751.07,1100.35 1750.18,1100.12 1749.11,1099.08"/>
    </edge>
    <edge id=":122762242_0" function="internal">
        <lane id=":122762242_0_0" index="0" disallow="tram rail_urban rail rail_electric ship" speed="13.89" length="5.06" shape="1541.43,494.14 1540.91,492.85 1540.10,492.05 1539.00,491.76 1537.62,491.96"/>
    </edge>
    <edge id=":122762242_1" function="internal">
        <lane id=":122762242_1_0" index="0" disallow="tram rail_urban rail rail_electric ship" speed="13.89" length="11.40" shape="1541.43,494.14 1541.14,490.77 1541.74,488.32 1542.41,485.98 1542.33,482.92"/>
    </edge>
    <edge id=":122762242_2" function="internal">
        <lane id=":122762242_2_0" index="0" disallow="tram rail_urban rail rail_electric ship" speed="13.89" length="5.13" shape="1544.63,493.34 1544.47,490.38 1545.28,488.38"/>
    </edge>
    <edge id=":122762242_3" function="internal">
        <lane id=":122762242_3_0" index="0" disallow="tram rail_urban rail rail_electric ship" speed="13.89" length="2.51" shape="1544.63,493.34 1545.14,491.94 1545.84,491.35 1545.94,491.37"/>
    </edge>
    <edge id=":122762242_16" function="internal">
        <lane id=":122762242_16_0" index="0" speed="13.89" length="7.95" shape="1545.28,488.38 1545.53,487.75 1547.82,485.45 1551.34,483.50"/>
    </edge>
    <edge id=":122762242_17" function="internal">
        <lane id=":122762242_17_0" index="0" speed="13.89" length="2.31" shape="1545.94,491.37 1546.74,491.55 1547.84,492.55"/>
    </edge>
    <edge id=":122762242_4" function="internal">
        <lane id=":122762242_4_0" index="0" disallow="tram rail_urban rail rail_electric ship" speed="13.89" length="5.99" shape="1552.65,486.53 1551.56,487.28 1550.94,488.40 1550.76,489.90 1551.04,491.76"/>
    </edge>
    <edge id=":122762242_5" function="internal">
        <lane id=":122762242_5_0" index="0" disallow="tram rail_urban rail rail_electric ship" speed="13.89" length="15.99" shape="1552.65,486.53 1549.04,488.02 1545.21,489.45 1541.34,490.79 1537.62,491.96"/>
    </edge>
    <edge id=":122762242_6" function="internal">
        <lane id=":122762242_6_0" index="0" disallow="tram rail_urban rail rail_electric ship" speed="13.89" length="7.19" shape="1552.65,486.53 1548.68,487.74 1545.64,487.54"/>
    </edge>
    <edge id=":122762242_7" function="internal">
        <lane id=":122762242_7_0" index="0" disallow="tram rail_urban rail rail_electric ship" speed="13.89" length="2.41" shape="1552.65,486.53 1551.19,486.27 1550.48,485.67"/>
    </edge>
    <edge id=":122762242_18" function="internal">
        <lane id=":122762242_18_0" index="0" speed="13.89" length="5.90" shape="1545.64,487.54 1543.52,485.93 1542.33,482.92"/>
    </edge>
    <edge id=":122762242_19" function="internal">
        <lane id=":122762242_19_0" index="0" speed="13.89" length="2.41" shape="1550.48,485.67 1550.53,484.75 1551.34,483.50"/>
    </edge>
    <edge id=":122762242_8" function="internal">
        <lane id=":122762242_8_0" index="0" disallow="tram rail_urban rail rail_electric ship" speed="13.89" length="6.94" shape="1545.57,482.29 1546.18,483.64 1547.35,484.30 1549.07,484.25 1551.34,483.50"/>
    </edge>
    <edge id=":122762242_9" function="internal">
        <lane id=":122762242_9_0" index="0" disallow="tram rail_urban rail rail_electric ship" speed="13.89" length="10.51" shape="1545.57,482.29 1547.84,492.55"/>
    </edge>
    <edge id=":122762242_10" function="internal">
        <lane id=":122762242_10_0" index="0" disallow="tram rail_urban rail rail_electric ship" speed="13.89" length="7.52" shape="1545.57,482.29 1545.58,485.48 1544.26,488.15 1543.22,489.00"/>
    </edge>
    <edge id=":122762242_11" function="internal">
        <lane id=":122762242_11_0" index="0" disallow="tram rail_urban rail rail_electric ship" speed="13.89" length="2.73" shape="1545.57,482.29 1545.00,483.66 1544.27,484.22 1543.96,484.14"/>
    </edge>
    <edge id=":122762242_20" function="internal">
        <lane id=":122762242_20_0" index="0" speed="13.89" length="6.39" shape="1543.22,489.00 1541.61,490.32 1537.62,491.96"/>
    </edge>
    <edge id=":122762242_21" function="internal">
        <lane id=":122762242_21_0" index="0" speed="13.89" length="2.09" shape="1543.96,484.14 1543.38,483.98 1542.33,482.92"/>
    </edge>
    <edge id=":122762242_12" function="internal">
        <lane id=":122762242_12_0" index="0" disallow="tram rail_urban rail rail_electric ship" speed="13.89" length="8.99" shape="1536.68,488.80 1539.44,487.71 1541.31,486.37 1542.27,484.77 1542.33,482.92"/>
    </edge>
    <edge id=":122762242_13" function="internal">
        <lane id=":122762242_13_0" index="0" disallow="tram rail_urban rail rail_electric ship" speed="13.89" length="15.60" shape="1536.68,488.80 1540.34,487.65 1544.08,486.36 1547.79,484.96 1551.34,483.50"/>
    </edge>
    <edge id=":122762242_14" function="internal">
        <lane id=":122762242_14_0" index="0" disallow="tram rail_urban rail rail_electric ship" speed="13.89" length="7.17" shape="1536.68,488.80 1540.95,487.97 1543.75,488.26"/>
    </edge>
    <edge id=":122762242_15" function="internal">
        <lane id=":122762242_15_0" index="0" disallow="tram rail_urban rail rail_electric ship" speed="13.89" length="2.41" shape="1536.68,488.80 1538.10,489.24 1538.73,489.91"/>
    </edge>
    <edge id=":122762242_22" function="internal">
        <lane id=":122762242_22_0" index="0" speed="13.89" length="6.25" shape="1543.75,488.26 1544.23,488.31 1546.53,489.84 1547.84,492.55"/>
    </edge>
    <edge id=":122762242_23" function="internal">
        <lane id=":122762242_23_0" index="0" speed="13.89" length="2.41" shape="1538.73,489.91 1538.57,490.82 1537.62,491.96"/>
    </edge>
    <edge id=":122762246_0" function="internal">
        <lane id=":122762246_0_0" index="0" disallow="tram rail_urban rail rail_electric ship" speed="13.89" length="5.38" shape="1491.25,224.24 1490.78,222.77 1489.98,221.95 1488.84,221.77 1487.37,222.24"/>
    </edge>
    <edge id=":122762246_1" function="internal">
        <lane id=":122762246_1_0" index="0" disallow="tram rail_urban rail rail_electric ship" speed="13.89" length="11.39" shape="1491.25,224.24 1489.37,213.01"/>
    </edge>
    <edge id=":122762246_2" function="internal">
        <lane id=":122762246_2_0" index="0" disallow="tram rail_urban rail rail_electric ship" speed="13.89" length="6.07" shape="1491.25,224.24 1491.12,220.99 1491.95,218.30"/>
    </edge>
    <edge id=":122762246_3" function="internal">
        <lane id=":122762246_3_0" index="0" disallow="tram rail_urban rail rail_electric ship" speed="13.89" length="2.41" shape="1491.25,224.24 1491.85,222.88 1492.60,222.34"/>
    </edge>
    <edge id=":122762246_16" function="internal">
        <lane id=":122762246_16_0" index="0" speed="13.89" length="5.90" shape="1491.95,218.30 1493.72,216.18 1496.43,214.61"/>
    </edge>
    <edge id=":122762246_17" function="internal">
        <lane id=":122762246_17_0" index="0" speed="13.89" length="2.41" shape="1492.60,222.34 1493.48,222.61 1494.50,223.69"/>
    </edge>
    <edge id=":122762246_4" function="internal">
        <lane id=":122762246_4_0" index="0" disallow="tram rail_urban rail rail_electric ship" speed="13.89" length="7.44" shape="1497.67,217.67 1496.00,218.64 1494.92,219.97 1494.42,221.65 1494.50,223.69"/>
    </edge>
    <edge id=":122762246_5" function="internal">
        <lane id=":122762246_5_0" index="0" disallow="tram rail_urban rail rail_electric ship" speed="13.89" length="11.26" shape="1497.67,217.67 1487.37,222.24"/>
    </edge>
    <edge id=":122762246_6" function="internal">
        <lane id=":122762246_6_0" index="0" disallow="tram rail_urban rail rail_electric ship" speed="13.89" length="5.16" shape="1497.67,217.67 1494.50,218.45 1492.64,218.05"/>
    </edge>
    <edge id=":122762246_7" function="internal">
        <lane id=":122762246_7_0" index="0" disallow="tram rail_urban rail rail_electric ship" speed="13.89" length="2.41" shape="1497.67,217.67 1496.21,217.37 1495.52,216.76"/>
    </edge>
    <edge id=":122762246_18" function="internal">
        <lane id=":122762246_18_0" index="0" speed="13.89" length="6.34" shape="1492.64,218.05 1492.06,217.93 1490.35,216.11 1489.37,213.01"/>
    </edge>
    <edge id=":122762246_19" function="internal">
        <lane id=":122762246_19_0" index="0" speed="13.89" length="2.41" shape="1495.52,216.76 1495.59,215.84 1496.43,214.61"/>
    </edge>
    <edge id=":122762246_8" function="internal">
        <lane id=":122762246_8_0" index="0" disallow="tram rail_urban rail rail_electric ship" speed="13.89" length="5.28" shape="1492.62,212.47 1493.07,213.90 1493.86,214.73 1494.98,214.97 1496.43,214.61"/>
    </edge>
    <edge id=":122762246_9" function="internal">
        <lane id=":122762246_9_0" index="0" disallow="tram rail_urban rail rail_electric ship" speed="13.89" length="11.38" shape="1492.62,212.47 1494.50,223.69"/>
    </edge>
    <edge id=":122762246_10" function="internal">
        <lane id=":122762246_10_0" index="0" disallow="tram rail_urban rail rail_electric ship" speed="13.89" length="5.92" shape="1492.62,212.47 1492.71,215.59 1491.86,218.26"/>
    </edge>
    <edge id=":122762246_11" function="internal">
        <lane id=":122762246_11_0" index="0" disallow="tram rail_urban rail rail_electric ship" speed="13.89" length="2.41" shape="1492.62,212.47 1492.01,213.83 1491.26,214.37"/>
    </edge>
    <edge id=":122762246_20" function="internal">
        <lane id=":122762246_20_0" index="0" speed="13.89" length="6.08" shape="1491.86,218.26 1490.08,220.48 1487.37,222.24"/>
    </edge>
    <edge id=":122762246_21" function="internal">
        <lane id=":122762246_21_0" index="0" speed="13.89" length="2.41" shape="1491.26,214.37 1490.38,214.10 1489.37,213.01"/>
    </edge>
    <edge id=":122762246_12" function="internal">
        <lane id=":122762246_12_0" index="0" disallow="tram rail_urban rail rail_electric ship" speed="13.89" length="7.73" shape="1485.93,219.27 1487.70,218.13 1488.86,216.70 1489.42,215.00 1489.37,213.01"/>
    </edge>
    <edge id=":122762246_13" function="internal">
        <lane id=":122762246_13_0" index="0" disallow="tram rail_urban rail rail_electric ship" speed="13.89" length="11.49" shape="1485.93,219.27 1496.43,214.61"/>
    </edge>
    <edge id=":122762246_14" function="internal">
        <lane id=":122762246_14_0" index="0" disallow="tram rail_urban rail rail_electric ship" speed="13.89" length="5.95" shape="1485.93,219.27 1489.18,218.24 1491.69,218.63"/>
    </edge>
    <edge id=":122762246_15" function="internal">
        <lane id=":122762246_15_0" index="0" disallow="tram rail_urban rail rail_electric ship" speed="13.89" length="2.52" shape="1485.93,219.27 1487.40,219.48 1488.14,220.04 1488.13,220.15"/>
    </edge>
    <edge id=":122762246_22" function="internal">
        <lane id=":122762246_22_0" index="0" speed="13.89" length="5.95" shape="1491.69,218.63 1493.46,220.45 1494.50,223.69"/>
    </edge>
    <edge id=":122762246_23" function="internal">
        <lane id=":122762246_23_0" index="0" speed="13.89" length="2.29" shape="1488.13,220.15 1488.12,220.96 1487.37,222.24"/>
    </edge>
    <edge id=":122773638_0" function="internal">
        <lane id=":122773638_0_0" index="0" disallow="tram rail_urban rail rail_electric ship" speed="13.89" length="4.82" shape="1.21,1070.01 -0.24,1070.35 -1.12,1070.09 -1.45,1069.23 -1.21,1067.76"/>
    </edge>
    <edge id=":122914600_0" function="internal">
        <lane id=":122914600_0_0" index="0" disallow="tram rail_urban rail rail_electric ship" speed="13.89" length="5.04" shape="1740.61,422.03 1740.36,423.31 1739.84,424.40 1739.03,425.31 1737.94,426.03"/>
    </edge>
    <edge id=":122914600_1" function="internal">
        <lane id=":122914600_1_0" index="0" disallow="tram rail_urban rail rail_electric ship" speed="13.89" length="2.84" shape="1740.61,422.03 1739.69,423.20 1738.84,423.55 1738.47,423.33"/>
    </edge>
    <edge id=":122914600_4" function="internal">
        <lane id=":122914600_4_0" index="0" speed="13.89" length="1.98" shape="1738.47,423.33 1738.05,423.08 1737.31,421.78"/>
    </edge>
    <edge id=":122914600_2" function="internal">
        <lane id=":122914600_2_0" index="0" disallow="tram rail_urban rail rail_electric ship" speed="13.89" length="1.65" shape="1736.45,423.09 1736.80,422.86 1737.06,422.56 1737.24,422.20 1737.31,421.78"/>
    </edge>
    <edge id=":122914600_3" function="internal">
        <lane id=":122914600_3_0" index="0" disallow="tram rail_urban rail rail_electric ship" speed="13.89" length="2.08" shape="1736.45,423.09 1737.92,423.27 1738.40,423.62"/>
    </edge>
    <edge id=":122914600_5" function="internal">
        <lane id=":122914600_5_0" index="0" speed="13.89" length="2.74" shape="1738.40,423.62 1738.67,423.81 1738.67,424.74 1737.94,426.03"/>
    </edge>
    <edge id=":122914608_0" function="internal">
        <lane id=":122914608_0_0" index="0" disallow="tram rail_urban rail rail_electric ship" speed="13.89" length="5.32" shape="1381.58,277.34 1381.07,275.91 1380.25,275.11 1379.12,274.93 1377.67,275.38"/>
    </edge>
    <edge id=":122914608_1" function="internal">
        <lane id=":122914608_1_0" index="0" disallow="tram rail_urban rail rail_electric ship" speed="13.89" length="10.54" shape="1381.58,277.34 1381.28,274.22 1381.74,271.66 1382.97,269.67 1384.97,268.23"/>
    </edge>
    <edge id=":122914608_2" function="internal">
        <lane id=":122914608_2_0" index="0" disallow="tram rail_urban rail rail_electric ship" speed="13.89" length="4.82" shape="1381.58,277.34 1382.14,275.96 1382.87,275.39 1383.76,275.63 1384.82,276.68"/>
    </edge>
    <edge id=":122914608_3" function="internal">
        <lane id=":122914608_3_0" index="0" disallow="tram rail_urban rail rail_electric ship" speed="13.89" length="6.16" shape="1386.41,271.20 1385.39,271.99 1384.78,273.17 1384.59,274.73 1384.82,276.68"/>
    </edge>
    <edge id=":122914608_4" function="internal">
        <lane id=":122914608_4_0" index="0" disallow="tram rail_urban rail rail_electric ship" speed="13.89" length="9.69" shape="1386.41,271.20 1377.67,275.38"/>
    </edge>
    <edge id=":122914608_5" function="internal">
        <lane id=":122914608_5_0" index="0" disallow="tram rail_urban rail rail_electric ship" speed="13.89" length="2.41" shape="1386.41,271.20 1384.94,271.00 1384.21,270.44"/>
    </edge>
    <edge id=":122914608_12" function="internal">
        <lane id=":122914608_12_0" index="0" speed="13.89" length="2.41" shape="1384.21,270.44 1384.22,269.51 1384.97,268.23"/>
    </edge>
    <edge id=":122914608_6" function="internal">
        <lane id=":122914608_6_0" index="0" disallow="tram rail_urban rail rail_electric ship" speed="13.89" length="5.40" shape="1380.89,266.41 1381.45,267.81 1382.31,268.57 1383.49,268.71 1384.97,268.23"/>
    </edge>
    <edge id=":122914608_7" function="internal">
        <lane id=":122914608_7_0" index="0" disallow="tram rail_urban rail rail_electric ship" speed="13.89" length="11.02" shape="1380.89,266.41 1381.85,269.38 1382.91,271.53 1383.94,273.69 1384.82,276.68"/>
    </edge>
    <edge id=":122914608_8" function="internal">
        <lane id=":122914608_8_0" index="0" disallow="tram rail_urban rail rail_electric ship" speed="13.89" length="10.40" shape="1380.89,266.41 1381.28,269.49 1380.87,272.01 1379.67,273.97 1377.67,275.38"/>
    </edge>
    <edge id=":122914608_9" function="internal">
        <lane id=":122914608_9_0" index="0" disallow="tram rail_urban rail rail_electric ship" speed="13.89" length="9.66" shape="1376.26,272.40 1384.97,268.23"/>
    </edge>
    <edge id=":122914608_10" function="internal">
        <lane id=":122914608_10_0" index="0" disallow="tram rail_urban rail rail_electric ship" speed="13.89" length="5.46" shape="1376.26,272.40 1379.43,271.42 1381.55,271.75"/>
    </edge>
    <edge id=":122914608_11" function="internal">
        <lane id=":122914608_11_0" index="0" disallow="tram rail_urban rail rail_electric ship" speed="13.89" length="2.41" shape="1376.26,272.40 1377.73,272.61 1378.46,273.18"/>
    </edge>
    <edge id=":122914608_13" function="internal">
        <lane id=":122914608_13_0" index="0" speed="13.89" length="6.18" shape="1381.55,271.75 1381.91,271.81 1383.70,273.56 1384.82,276.68"/>
    </edge>
    <edge id=":122914608_14" function="internal">
        <lane id=":122914608_14_0" index="0" speed="13.89" length="2.41" shape="1378.46,273.18 1378.44,274.11 1377.67,275.38"/>
    </edge>
    <edge id=":122914611_0" function="internal">
        <lane id=":122914611_0_0" index="0" disallow="tram rail_urban rail rail_electric ship" speed="13.89" length="10.31" shape="1274.92,322.80 1272.04,323.72 1269.98,324.28 1267.88,324.70 1264.90,325.17"/>
    </edge>
    <edge id=":122914611_1" function="internal">
        <lane id=":122914611_1_0" index="0" disallow="tram rail_urban rail rail_electric ship" speed="13.89" length="5.51" shape="1274.92,322.80 1271.96,323.31 1269.64,322.71 1269.56,322.64"/>
    </edge>
    <edge id=":122914611_2" function="internal">
        <lane id=":122914611_2_0" index="0" disallow="tram rail_urban rail rail_electric ship" speed="13.89" length="2.41" shape="1274.92,322.80 1273.48,322.40 1272.84,321.74"/>
    </edge>
    <edge id=":122914611_9" function="internal">
        <lane id=":122914611_9_0" index="0" speed="13.89" length="5.29" shape="1269.56,322.64 1267.94,321.02 1266.87,318.22"/>
    </edge>
    <edge id=":122914611_10" function="internal">
        <lane id=":122914611_10_0" index="0" speed="13.89" length="2.41" shape="1272.84,321.74 1272.98,320.83 1273.90,319.66"/>
    </edge>
    <edge id=":122914611_3" function="internal">
        <lane id=":122914611_3_0" index="0" disallow="tram rail_urban rail rail_electric ship" speed="13.89" length="5.11" shape="1270.09,317.49 1270.59,318.82 1271.40,319.62 1272.50,319.90 1273.90,319.66"/>
    </edge>
    <edge id=":122914611_4" function="internal">
        <lane id=":122914611_4_0" index="0" disallow="tram rail_urban rail rail_electric ship" speed="13.89" length="10.75" shape="1270.09,317.49 1270.33,320.47 1269.54,322.74 1267.73,324.31 1264.90,325.17"/>
    </edge>
    <edge id=":122914611_5" function="internal">
        <lane id=":122914611_5_0" index="0" disallow="tram rail_urban rail rail_electric ship" speed="13.89" length="2.69" shape="1270.09,317.49 1269.55,318.88 1268.84,319.46 1268.57,319.40"/>
    </edge>
    <edge id=":122914611_11" function="internal">
        <lane id=":122914611_11_0" index="0" speed="13.89" length="2.13" shape="1268.57,319.40 1267.94,319.24 1266.87,318.22"/>
    </edge>
    <edge id=":122914611_6" function="internal">
        <lane id=":122914611_6_0" index="0" disallow="tram rail_urban rail rail_electric ship" speed="13.89" length="5.14" shape="1264.41,321.91 1265.76,321.49 1266.61,320.74 1266.99,319.65 1266.87,318.22"/>
    </edge>
    <edge id=":122914611_7" function="internal">
        <lane id=":122914611_7_0" index="0" disallow="tram rail_urban rail rail_electric ship" speed="13.89" length="9.77" shape="1264.41,321.91 1267.27,321.46 1269.22,321.07 1271.14,320.54 1273.90,319.66"/>
    </edge>
    <edge id=":122914611_8" function="internal">
        <lane id=":122914611_8_0" index="0" disallow="tram rail_urban rail rail_electric ship" speed="13.89" length="2.41" shape="1264.41,321.91 1265.76,322.54 1266.29,323.29"/>
    </edge>
    <edge id=":122914611_12" function="internal">
        <lane id=":122914611_12_0" index="0" speed="13.89" length="2.41" shape="1266.29,323.29 1266.00,324.17 1264.90,325.17"/>
    </edge>
    <edge id=":122914612_0" function="internal">
        <lane id=":122914612_0_0" index="0" disallow="tram rail_urban rail rail_electric ship" speed="20.84" length="5.14" shape="1142.39,333.54 1142.16,332.18 1141.53,331.21 1140.51,330.63 1139.09,330.44"/>
    </edge>
    <edge id=":122914612_1" function="internal">
        <lane id=":122914612_1_0" index="0" disallow="tram rail_urban rail rail_electric ship" speed="27.78" length="9.57" shape="1142.39,333.54 1142.13,323.98"/>
        <lane id=":122914612_1_1" index="1" disallow="tram rail_urban rail rail_electric ship" speed="27.78" length="9.57" shape="1145.69,333.46 1145.43,323.88"/>
    </edge>
    <edge id=":122914612_3" function="internal">
        <lane id=":122914612_3_0" index="0" disallow="tram rail_urban rail rail_electric ship" speed="20.84" length="4.43" shape="1145.69,333.46 1146.23,330.68 1147.28,329.47"/>
    </edge>
    <edge id=":122914612_4" function="internal">
        <lane id=":122914612_4_0" index="0" disallow="tram rail_urban rail rail_electric ship" speed="27.78" length="2.41" shape="1145.69,333.46 1146.49,332.20 1147.30,331.77"/>
    </edge>
    <edge id=":122914612_18" function="internal">
        <lane id=":122914612_18_0" index="0" speed="20.84" length="8.63" shape="1147.28,329.47 1148.00,328.65 1151.00,327.35 1155.23,326.80"/>
    </edge>
    <edge id=":122914612_19" function="internal">
        <lane id=":122914612_19_0" index="0" speed="27.78" length="2.41" shape="1147.30,331.77 1148.14,332.16 1148.99,333.38"/>
    </edge>
    <edge id=":122914612_5" function="internal">
        <lane id=":122914612_5_0" index="0" disallow="tram rail_urban rail rail_electric ship" speed="20.84" length="5.04" shape="1155.36,330.10 1153.99,330.34 1153.02,330.96 1152.45,331.94 1152.29,333.29"/>
    </edge>
    <edge id=":122914612_6" function="internal">
        <lane id=":122914612_6_0" index="0" disallow="tram rail_urban rail rail_electric ship" speed="13.89" length="16.27" shape="1155.36,330.10 1139.09,330.44"/>
    </edge>
    <edge id=":122914612_7" function="internal">
        <lane id=":122914612_7_0" index="0" disallow="tram rail_urban rail rail_electric ship" speed="20.84" length="7.80" shape="1155.36,330.10 1151.09,329.85 1148.01,328.73 1147.84,328.55"/>
    </edge>
    <edge id=":122914612_8" function="internal">
        <lane id=":122914612_8_0" index="0" disallow="tram rail_urban rail rail_electric ship" speed="13.89" length="2.41" shape="1155.36,330.10 1154.09,329.32 1153.65,328.51"/>
    </edge>
    <edge id=":122914612_20" function="internal">
        <lane id=":122914612_20_0" index="0" speed="20.84" length="5.44" shape="1147.84,328.55 1146.12,326.74 1145.43,323.88"/>
    </edge>
    <edge id=":122914612_21" function="internal">
        <lane id=":122914612_21_0" index="0" speed="13.89" length="2.41" shape="1153.65,328.51 1154.03,327.67 1155.23,326.80"/>
    </edge>
    <edge id=":122914612_9" function="internal">
        <lane id=":122914612_9_0" index="0" disallow="tram rail_urban rail rail_electric ship" speed="20.84" length="5.11" shape="1152.02,323.68 1152.26,325.09 1152.88,326.08 1153.87,326.65 1155.23,326.80"/>
    </edge>
    <edge id=":122914612_10" function="internal">
        <lane id=":122914612_10_0" index="0" disallow="tram rail_urban rail rail_electric ship" speed="27.78" length="9.61" shape="1152.02,323.68 1152.29,333.29"/>
        <lane id=":122914612_10_1" index="1" disallow="tram rail_urban rail rail_electric ship" speed="27.78" length="9.61" shape="1148.73,323.78 1148.99,333.38"/>
    </edge>
    <edge id=":122914612_12" function="internal">