<?xml version="1.0" encoding="UTF-8"?>

<!-- generated on 02/01/18 06:15:22 by SUMO duarouter Version 0.30.0
<?xml version="1.0" encoding="UTF-8"?>

<configuration xmlns:xsi="http://www.w3.org/2001/XMLSchema-instance" xsi:noNamespaceSchemaLocation="http://sumo.dlr.de/xsd/duarouterConfiguration.xsd">

    <input>
        <net-file value="net.net.xml"/>
        <trip-files value="trips.trips.xml"/>
    </input>

    <output>
        <output-file value="routes.rou.xml"/>
    </output>

    <report>
        <xml-validation value="never"/>
        <no-step-log value="true"/>
    </report>

</configuration>
-->

<routes xmlns:xsi="http://www.w3.org/2001/XMLSchema-instance" xsi:noNamespaceSchemaLocation="http://sumo.dlr.de/xsd/routes_file.xsd">
    <vehicle id="0" depart="0.00">
        <route edges="324948436#0 324948436#1 324948436#2 324948437#0 324948437#1 -225060725 -13336969#9 -13336969#8 -13336969#7 -13336969#6 -13336969#5 -13336969#4 -13336969#3 13336969#3"/>
    </vehicle>
    <vehicle id="1" depart="1.00">
        <route edges="-13427908#2 -398422367#1 -398422367#0 197409443#0 197409443#1 197409443#2 13442541#0"/>
    </vehicle>
    <vehicle id="2" depart="2.00">
        <route edges="132495023#0 -132495023#0 -197409443#4 -197409443#3 -197409443#2 -197409443#1 -197409443#0 398422367#0 398422367#1 -13427908#1 -13427908#0 159608998#0 159608998#1"/>
    </vehicle>
    <vehicle id="3" depart="3.00">
        <route edges="132495023#3 -13336969#8 -13336969#7 -13336969#6 -13336969#5 -13336969#4 -13336969#3 -13336969#2 -13336969#1"/>
    </vehicle>
    <vehicle id="4" depart="4.00">
        <route edges="129555457#3 129555457#4 129555457#5 250080658#0 250080658#1 398422367#0 13336969#5 13336969#6 13442541#2 44631293#0"/>
    </vehicle>
    <vehicle id="5" depart="5.00">
        <route edges="46505594#1 13336969#2 13336969#3 13336969#4 13336969#5 13336969#6 13336969#7 13336969#8 13336969#9 225060725 324948436#0 324948436#1 324948436#2 324948437#0"/>
    </vehicle>
    <vehicle id="6" depart="6.00">
        <route edges="13444491#1 13336969#2 13336969#3 13336969#4 -398422367#0 197409443#0 197409443#1 197409443#2 197409443#3 197409443#4 -132495027#3 -132495027#2 -132495027#1 132495027#1"/>
    </vehicle>
    <vehicle id="7" depart="7.00">
        <route edges="44651956#0 -44651956#0 -398422367#1 13336969#5"/>
    </vehicle>
    <vehicle id="8" depart="8.00">
        <route edges="-129555457#5 -129555457#4"/>
    </vehicle>
    <vehicle id="9" depart="9.00">
        <route edges="398421189#0 398421189#1 398421185 372137064 197409443#0 197409443#1 197409443#2 197409443#3 197409443#4 -132495027#3 -132495027#2 132495027#2"/>
    </vehicle>
</routes>
