<?xml version="1.0" encoding="UTF-8"?>

<!-- generated on 01/30/18 16:07:08 by SUMO duarouter Version 0.30.0
<?xml version="1.0" encoding="UTF-8"?>

<configuration xmlns:xsi="http://www.w3.org/2001/XMLSchema-instance" xsi:noNamespaceSchemaLocation="http://sumo.dlr.de/xsd/duarouterConfiguration.xsd">

    <input>
        <net-file value="net.net.xml"/>
        <trip-files value="trips.trips.xml"/>
    </input>

    <output>
        <output-file value="routes.rou.xml"/>
    </output>

    <report>
        <xml-validation value="never"/>
        <no-step-log value="true"/>
    </report>

</configuration>
-->

<routes xmlns:xsi="http://www.w3.org/2001/XMLSchema-instanc-->

<routes xmlns:xsi="http://www.w3.org/2001/XMLSchema-instance" xsi:noNamespaceSchemaLocation="http://sumo.dlr.de/xsd/routes_file.xsd">
</routes>
57#5 250080658#0 250080658#1 398422367#0 398422367#1 -13427908#1 -13427908#0 -13377861"/>
    </vehicle>
    <vehicle id="1" depart="1.00">
        <route edges="197409444#0 -197409444#0 129555457#0 129555457#1 129555457#2 129555457#3 129555457#4 129555457#5 250080658#0 250080658#1 398422367#0 398422367#1 -13427908#1 -13427908#0 13427908#0"/>
    </vehicle>
    <vehicle id="2" depart="2.00">
        <route edges="-13442541#0 13442541#0 13442541#1 13336969#7 13336969#8 13336969#9 -30876274#2 -30876274#1 -30876274#0"/>
    </vehicle>
    <vehicle id="3" depart="3.00">
        <route edges="-44651956#0 -398422367#1 -13336969#4 -13336969#3 -13336969#2 13336969#2"/>
    </vehicle>
    <vehicle id="4" depart="4.00">
        <route edges="324948436#1 324948436#2 324948437#0 324948437#1 -225060725 -13336969#9 -132495023#3 -132495023#2 -13385032#1 13385032#1"/>
    </vehicle>
    <vehicle id="5" depart="5.00">
        <route edges="-159608998#2 -159608998#1 -159608998#0 13427908#0 13427908#1 -398422367#1 -398422367#0 197409443#0 197409443#1 197409443#2 197409443#3 197409443#4 -132495027#3 132495027#3"/>
    </vehicle>
    <vehicle id="6" depart="6.00">
        <route edges="44631293#0 44631293#1 -13427908#2 -398422367#1 -398422367#0 197409443#0 197409443#1 197409443#2 197409443#3 197409443#4 -132495027#3 132495027#3"/>
    </vehicle>
    <vehicle id="7" depart="7.00">
        <route edges="-13336969#6 13336969#6 -13442541#1 -13442541#0 -197409443#2"/>
    </vehicle>
    <vehicle id="8" depart="8.00">
        <route edges="197409443#0 -197409443#0 -250080658#1 -250080658#0 -129555457#5 -129555457#4 -129555457#3 -129555457#2 -129555457#1"/>
    </vehicle>
    <vehicle id="9" depart="9.00">
        <route edges="-13336969#9 -13336969#8"/>
    </vehicle>
    <vehicle id="10" depart="10.00">
        <route edges="-129555455 132495023#0 132495023#1 132495023#2 132495023#3 13336969#9 30876274#3 30876274#4 30876274#5"/>
    </vehicle>
    <vehicle id="11" depart="11.00">
        <route edges="132495027#2 132495027#3 -197409443#4 -197409443#3 -197409443#2 -197409443#1 -197409443#0 398422367#0 398422367#1 -398422367#1"/>
    </vehicle>
    <vehicle id="12" depart="12.00">
        <route edges="-13427908#1 -13427908#0 -13377861 -13336969#2 -13336969#1 197409444#3"/>
    </vehicle>
    <vehicle id="14" depart="14.00">
        <route edges="-129555457#5 129555457#5 250080658#0 250080658#1 197409443#0 197409443#1 197409443#2 197409443#3 197409443#4 -132495027#3 -132495027#2 -132495027#1"/>
    </vehicle>
    <vehicle id="15" depart="15.00">
        <route edges="13444491#0"/>
    </vehicle>
    <vehicle id="16" depart="16.00">
        <route edges="30876274#3 -30876274#3 -13336969#9 -13336969#8 -13336969#7 -13336969#6 -13336969#5 -13336969#4 -13336969#3"/>
    </vehicle>
    <vehicle id="17" depart="17.00">
        <route edges="324948437#1 -225060725 -13336969#9 -13336969#8 -13336969#7 -13336969#6 -13336969#5 -13336969#4 -13336969#3 -13336969#2 -13444491#1"/>
    </vehicle>
    <vehicle id="18" depart="18.00">
        <route edges="-197409444#1 197409444#1"/>
    </vehicle>
    <vehicle id="19" depart="19.00">
        <route edges="398421189#0 398421189#1 398421185 372137064 398422367#0 13336969#5 13336969#6 13336969#7 13336969#8 -132495023#3"/>
    </vehicle>
    <vehicle id="20" depart="20.00">
        <route edges="44631293#0 44631293#1 -13427908#2 13427908#2"/>
    </vehicle>
    <vehicle id="21" depart="21.00">
        <route edges="-250080658#1 250080658#1 197409443#0 197409443#1 197409443#2 197409443#3 197409443#4 -132495027#3 -132495027#2"/>
    </vehicle>
    <vehicle id="22" depart="22.00">
        <route edges="-13385032#1 13385032#1 132495023#2 132495023#3 -13336969#8"/>
    </vehicle>
    <vehicle id="23" depart="23.00">
        <route edges="13377861 159608998#0 159608998#1 159608998#2 46505594#0 46505594#1"/>
    </vehicle>
    <vehicle id="24" depart="24.00">
        <route edges="-13442541#0 13442541#0 13442541#1 13442541#2 44631293#0 44631293#1"/>
    </vehicle>
    <vehicle id="25" depart="25.00">
        <route edges="-132495023#1 132495023#1 132495023#2 132495023#3 -13336969#8"/>
    </vehicle>
    <vehicle id="26" depart="26.00">
        <route edges="-129555457#5 129555457#5 250080658#0 250080658#1 398422367#0 13336969#5 -13336969#5"/>
    </vehicle>
    <vehicle id="27" depart="27.00">
        <route edges="-129555457#2 129555457#2 129555457#3 129555457#4 129555457#5 250080658#0 250080658#1 398422367#0 398422367#1 -398422367#1"/>
    </vehicle>
    <vehicle id="28" depart="28.00">
        <route edges="324948437#0 324948437#1 -225060725 225060725"/>
    </vehicle>
    <vehicle id="29" depart="29.00">
        <route edges="13442541#0 -13442541#0 -197409443#2 -197409443#1 -197409443#0 -250080658#1 -250080658#0 -129555457#5 229938450#0 229938450#1 229938450#2"/>
    </vehicle>
    <vehicle id="30" depart="30.00">
        <route edges="-132495027#3 132495027#3 -197409443#4 -197409443#3 -197409443#2 -197409443#1 -197409443#0 398422367#0 398422367#1 44651956#0 44651956#1"/>
    </vehicle>
    <vehicle id="31" depart="31.00">
        <route edges="-129555460#1 129555460#1 129555457#0 129555457#1 129555457#2 129555457#3 129555457#4 129555457#5 250080658#0 250080658#1 197409443#0 197409443#1 197409443#2 197409443#3 197409443#4 132495023#0 132495023#1 132495023#2"/>
    </vehicle>
    <vehicle id="32" depart="32.00">
        <route edges="44631293#0 44631293#1 -13427908#2 -398422367#1 13336969#5 13336969#6 13336969#7 13336969#8 -132495023#3 -132495023#2 -13385032#1"/>
    </vehicle>
    <vehicle id="33" depart="33.00">
        <route edges="-30876274#3 -13336969#9 -13336969#8 -13336969#7 13442541#2"/>
    </vehicle>
    <vehicle id="34" depart="34.00">
        <route edges="-129555457#4 129555457#4 129555457#5 250080658#0 250080658#1 398422367#0 13336969#5 13336969#6 13442541#2 44631293#0"/>
    </vehicle>
    <vehicle id="35" depart="35.00">
        <route edges="30876274#1 30876274#2 -13336969#9 -13336969#8 -13336969#7 -13336969#6 -13336969#5 398422367#1 44651956#0 44651956#1"/>
    </vehicle>
    <vehicle id="36" depart="36.00">
        <route edges="30876274#2 -13336969#9 -13336969#8 -13336969#7 -13336969#6 -13336969#5 -398422367#0 197409443#0"/>
    </vehicle>
    <vehicle id="37" depart="37.00">
        <route edges="129555457#3 129555457#4 129555457#5 250080658#0 250080658#1 398422367#0 13336969#5 13336969#6 13336969#7 13336969#8 13336969#9"/>
    </vehicle>
    <vehicle id="38" depart="38.00">
        <route edges="13336969#2 -13336969#2 -13444491#1 -13444491#0 -129555457#4 -129555457#3 129555457#3"/>
    </vehicle>
    <vehicle id="39" depart="39.00">
        <route edges="-30876274#3 -13336969#9 -132495023#3"/>
    </vehicle>
    <vehicle id="40" depart="40.00">
        <route edges="132495027#0 132495027#1 132495027#2 132495027#3 132495023#0 132495023#1 132495023#2 132495023#3 288116297"/>
    </vehicle>
    <vehicle id="41" depart="41.00">
        <route edges="30876274#2 -13336969#9 -13336969#8 -13336969#7 -13336969#6 -13336969#5 398422367#1 13427908#2"/>
    </vehicle>
    <vehicle id="42" depart="42.00">
        <route edges="13427908#0 13427908#1 -398422367#1 13336969#5 13336969#6 13336969#7 13336969#8 -132495023#3 -132495023#2 -132495023#1"/>
    </vehicle>
    <vehicle id="43" depart="43.00">
        <route edges="46505594#1 13336969#2 13336969#3 13336969#4 13336969#5 13336969#6 13336969#7 13336969#8 -132495023#3 -132495023#2 -13385032#1"/>
    </vehicle>
    <vehicle id="44" depart="44.00">
        <route edges="-129555457#2 129555457#2 129555457#3 129555457#4 129555457#5 250080658#0 250080658#1 197409443#0 197409443#1 197409443#2 197409443#3 197409443#4 -132495027#3 132495027#3"/>
    </vehicle>
    <vehicle id="45" depart="45.00">
        <route edges="197409443#3 197409443#4 132495023#0 132495023#1 132495023#2 132495023#3 288116297"/>
    </vehicle>
    <vehicle id="46" depart="46.00">
        <route edges="-288116297 -13336969#8 -13336969#7 -13336969#6 -13336969#5 -398422367#0 -250080658#1 -250080658#0 -129555457#5 -129555457#4 -129555457#3 -129555457#2 -129555457#1 -129555457#0 -13462022#1 -13462022#0 13336969#0"/>
    </vehicle>
    <vehicle id="47" depart="47.00">
        <route edges="-13462022#1 13462022#1 129555457#0 129555457#1 129555457#2 129555457#3 129555457#4 129555457#5 250080658#0 250080658#1 398422367#0 13336969#5 13336969#6 13336969#7"/>
    </vehicle>
    <vehicle id="48" depart="48.00">
        <route edges="-13336969#0 13462022#0 13462022#1 129555457#0 129555457#1 129555457#2 129555457#3 129555457#4 129555457#5 250080658#0 250080658#1 197409443#0 197409443#1 197409443#2 197409443#3 197409443#4 132495023#0 132495023#1 -13385032#1"/>
    </vehicle>
    <vehicle id="49" depart="49.00">
        <route edges="-129555457#3 129555457#3 129555457#4 129555457#5 250080658#0 250080658#1 399951107 399951106"/>
    </vehicle>
</routes>
