<?xml version="1.0" encoding="UTF-8"?>

<!-- generated on 02/28/18 21:18:50 by SUMO duarouter Version 0.30.0
<?xml version="1.0" encoding="UTF-8"?>

<configuration xmlns:xsi="http://www.w3.org/2001/XMLSchema-instance" xsi:noNamespaceSchemaLocation="http://sumo.dlr.de/xsd/duarouterConfiguration.xsd">

    <input>
        <net-file value="net.net.xml"/>
        <trip-files value="trips.trips.xml"/>
    </input>

    <output>
        <output-file value="routes.rou.xml"/>
    </output>

    <report>
        <xml-validation value="never"/>
        <no-step-log value="true"/>
    </report>

</configuration>
-->

<routes xmlns:xsi="http://www.w3.org/2001/XMLSchema-instance" xsi:noNamespaceSchemaLocation="http://sumo.dlr.de/xsd/routes_file.xsd">
    <vehicle id="0" depart="0.00">
        <route edges="51805334#0 51805334#1"/>
    </vehicle>
    <vehicle id="1" depart="1.00">
        <route edges="51805334#0 51805334#1"/>
    </vehicle>
    <vehicle id="2" depart="2.00">
        <route edges="51805334#0 27934792"/>
    </vehicle>
    <vehicle id="3" depart="3.00">
        <route edges="51805334#0 27934792"/>
    </vehicle>
    <vehicle id="4" depart="4.00">
        <route edges="51805334#0 51805334#1"/>
    </vehicle>
    <vehicle id="5" depart="5.00">
        <route edges="51805334#0 27934792"/>
    </vehicle>
    <vehicle id="6" depart="6.00">
        <route edges="51805334#0 27934792"/>
    </vehicle>
    <vehicle id="7" depart="7.00">
        <route edges="51805334#0 51805334#1"/>
    </vehicle>
    <vehicle id="8" depart="8.00">
        <route edges="51805334#0 27934792"/>
    </vehicle>
    <vehicle id="9" depart="9.00">
        <route edges="51805334#0 51805334#1"/>
    </vehicle>
</routes>
